/*--------------------------------*- C++ -*----------------------------------*\
| =========                 |                                                 |
| \\      /  F ield         | OpenFOAM: The Open Source CFD Toolbox           |
|  \\    /   O peration     | Version:  2206                                  |
|   \\  /    A nd           | Website:  www.openfoam.com                      |
|    \\/     M anipulation  |                                                 |
\*---------------------------------------------------------------------------*/
FoamFile
{
    version     2.0;
    format      ascii;
    arch        "LSB;label=32;scalar=64";
    class       polyBoundaryMesh;
    location    "constant/polyMesh";
    object      boundary;
}
// * * * * * * * * * * * * * * * * * * * * * * * * * * * * * * * * * * * * * //

3
(
    interface
    {
        type            patch;
        nFaces          36;
        startFace       159;
    }
    bottom
    {
        type            patch;
        nFaces          6;
        startFace       195;
    }
    frontAndBack
    {
        type            empty;
        inGroups        1(empty);
        nFaces          180;
        startFace       201;
    }
)

// ************************************************************************* //
